Version 4.1
SHEET 1 1976 680
WIRE -2144 -752 -2416 -752
WIRE -1904 -752 -2144 -752
WIRE -1600 -752 -1904 -752
WIRE -1504 -752 -1504 -832
WIRE -1504 -752 -1600 -752
WIRE -1456 -752 -1504 -752
WIRE -1328 -752 -1328 -832
WIRE -1328 -752 -1376 -752
WIRE -1232 -752 -1328 -752
WIRE -1104 -752 -1232 -752
WIRE -992 -752 -1104 -752
WIRE -864 -752 -992 -752
WIRE -800 -752 -864 -752
WIRE -608 -752 -704 -752
WIRE -544 -752 -608 -752
WIRE -288 -752 -544 -752
WIRE -160 -752 -288 -752
WIRE -144 -752 -160 -752
WIRE -32 -752 -64 -752
WIRE -16 -752 -32 -752
WIRE 96 -752 64 -752
WIRE 320 -752 96 -752
WIRE 384 -752 320 -752
WIRE 480 -752 384 -752
WIRE 624 -752 576 -752
WIRE 736 -752 624 -752
WIRE 896 -752 736 -752
WIRE 976 -752 896 -752
WIRE 1120 -752 976 -752
WIRE 736 -720 736 -752
WIRE 976 -720 976 -752
WIRE -2144 -704 -2144 -752
WIRE -1232 -704 -1232 -752
WIRE -1104 -704 -1104 -752
WIRE -288 -704 -288 -752
WIRE -160 -704 -160 -752
WIRE -32 -704 -32 -752
WIRE 96 -704 96 -752
WIRE 1120 -704 1120 -752
WIRE -2416 -672 -2416 -752
WIRE -1904 -656 -1904 -752
WIRE -544 -624 -544 -752
WIRE -480 -624 -544 -624
WIRE -400 -624 -416 -624
WIRE 224 -624 208 -624
WIRE 320 -624 320 -752
WIRE 320 -624 288 -624
WIRE -608 -608 -608 -752
WIRE 384 -608 384 -752
WIRE 736 -608 736 -656
WIRE 976 -608 976 -656
WIRE -2144 -592 -2144 -624
WIRE -2144 -592 -2176 -592
WIRE -2112 -592 -2144 -592
WIRE -1232 -592 -1232 -640
WIRE -1104 -592 -1104 -640
WIRE -2176 -560 -2176 -592
WIRE -2112 -560 -2112 -592
WIRE 1120 -560 1120 -624
WIRE -1904 -544 -1904 -576
WIRE -1776 -544 -1904 -544
WIRE -400 -528 -560 -528
WIRE 336 -528 208 -528
WIRE -1776 -512 -1776 -544
WIRE -608 -496 -608 -512
WIRE 384 -496 384 -512
WIRE -1904 -464 -1904 -544
WIRE -1600 -448 -1600 -752
WIRE -720 -448 -720 -704
WIRE -400 -448 -720 -448
WIRE 496 -448 496 -704
WIRE 496 -448 208 -448
WIRE -2416 -416 -2416 -592
WIRE -2176 -416 -2176 -496
WIRE -2176 -416 -2416 -416
WIRE -2112 -416 -2112 -496
WIRE -2112 -416 -2176 -416
WIRE -1984 -416 -2112 -416
WIRE -1776 -416 -1776 -448
WIRE -1776 -416 -1888 -416
WIRE -992 -400 -992 -752
WIRE -1776 -384 -1776 -416
WIRE -864 -368 -864 -752
WIRE -496 -368 -864 -368
WIRE -400 -368 -496 -368
WIRE 256 -368 208 -368
WIRE 624 -368 624 -752
WIRE 624 -368 256 -368
WIRE -1600 -320 -1600 -368
WIRE -1488 -320 -1600 -320
WIRE -1600 -272 -1600 -320
WIRE -992 -272 -992 -320
WIRE -400 -272 -992 -272
WIRE 368 -272 208 -272
WIRE -992 -240 -992 -272
WIRE -512 -240 -560 -240
WIRE 896 -240 896 -752
WIRE -592 -176 -608 -176
WIRE -512 -176 -512 -240
WIRE -512 -176 -528 -176
WIRE -400 -176 -512 -176
WIRE 368 -176 208 -176
WIRE -1600 -144 -1600 -192
WIRE -992 -128 -992 -160
WIRE -704 -80 -752 -80
WIRE -560 -80 -640 -80
WIRE -400 -80 -480 -80
WIRE 896 -80 896 -160
WIRE 896 -80 208 -80
WIRE 1008 -80 896 -80
WIRE 1168 -80 1088 -80
WIRE 896 -32 896 -80
WIRE -608 16 -624 16
WIRE -528 16 -544 16
WIRE -416 16 -528 16
WIRE -400 16 -416 16
WIRE 288 16 208 16
WIRE 896 64 896 48
WIRE -416 112 -416 16
WIRE -400 112 -416 112
WIRE 288 112 208 112
WIRE 1488 112 1488 48
WIRE -528 208 -528 16
WIRE -400 208 -528 208
WIRE 1488 240 1488 192
WIRE -400 288 -560 288
WIRE 240 288 208 288
WIRE -288 400 -288 384
WIRE 96 400 96 384
WIRE -96 416 -96 384
WIRE -288 480 -288 464
WIRE 96 496 96 480
WIRE -96 512 -96 496
WIRE -96 608 -96 576
FLAG 240 288 0
FLAG -288 480 0
FLAG 96 496 0
FLAG -96 608 0
FLAG -992 -128 0
FLAG -608 -496 0
FLAG 384 -496 0
FLAG 896 64 0
FLAG -608 -176 0
FLAG -624 16 0
FLAG 1120 -752 OUT
FLAG -1104 -592 0
FLAG 1120 -560 0
FLAG -1232 -592 0
FLAG -496 -304 0
FLAG 256 -304 0
FLAG 976 -608 0
FLAG 1168 -80 Vcontrol
FLAG 1488 48 Vcontrol
FLAG 736 -608 0
FLAG 1488 240 0
FLAG -560 -240 INTVcc
FLAG -752 -80 INTVcc
FLAG -560 288 INTVcc
FLAG -1600 -144 0
FLAG -1488 -320 FB_IN
FLAG -1776 -384 0
FLAG 368 -272 ISP
FLAG 368 -176 ISN
FLAG -1504 -832 ISP
FLAG -1328 -832 ISN
SYMBOL cap -304 400 R0
SYMATTR InstName C1
SYMATTR Value 100n
SYMBOL res -160 -736 R270
WINDOW 0 32 56 VTop 2
WINDOW 3 0 56 VBottom 2
SYMATTR InstName R1
SYMATTR Value 1.6m
SYMBOL cap -416 -640 R90
WINDOW 0 0 32 VBottom 2
WINDOW 3 32 32 VTop 2
SYMATTR InstName C2
SYMATTR Value .1µ
SYMBOL ind -32 -736 R270
WINDOW 0 32 56 VTop 2
WINDOW 3 5 56 VBottom 2
SYMATTR InstName L1
SYMATTR Value 6.8µ
SYMATTR SpiceLine Ipk=44 Rser=1.31m Cpar=0
SYMBOL cap 288 -640 R90
WINDOW 0 0 32 VBottom 2
WINDOW 3 32 32 VTop 2
SYMATTR InstName C3
SYMATTR Value .1µ
SYMBOL res 80 384 R0
SYMATTR InstName R2
SYMATTR Value 100k
SYMBOL res 880 -256 R0
SYMATTR InstName R3
SYMATTR Value 820k
SYMBOL cap -528 -192 R90
WINDOW 0 0 32 VBottom 2
WINDOW 3 32 32 VTop 2
SYMATTR InstName C4
SYMATTR Value 4.7µ
SYMBOL cap -544 0 R90
WINDOW 0 0 32 VBottom 2
WINDOW 3 32 32 VTop 2
SYMATTR InstName C5
SYMATTR Value .47µ
SYMBOL LT8390 -96 -160 R0
SYMATTR InstName U1
SYMBOL res 880 -48 R0
SYMATTR InstName R4
SYMATTR Value 18.7k
SYMBOL res -464 -96 R90
WINDOW 0 0 56 VBottom 2
WINDOW 3 32 56 VTop 2
SYMATTR InstName R5
SYMATTR Value 330
SYMBOL res -1008 -256 R0
SYMATTR InstName R6
SYMATTR Value 45.3K
SYMATTR SpiceLine tol=1 pwr=0.1
SYMBOL res -1008 -416 R0
SYMATTR InstName R7
SYMATTR Value 249K
SYMATTR SpiceLine tol=1 pwr=0.1
SYMBOL res 1104 -96 R90
WINDOW 0 0 56 VBottom 2
WINDOW 3 32 56 VTop 2
SYMATTR InstName R8
SYMATTR Value 73.2k
SYMBOL nmos -800 -704 R270
SYMATTR InstName M1
SYMATTR Value IRLH5036
SYMBOL nmos 576 -704 M270
SYMATTR InstName M2
SYMATTR Value IRLH5036
SYMBOL nmos 336 -608 R0
WINDOW 3 -100 99 Left 2
SYMATTR Value IRLH5036
SYMATTR InstName M3
SYMBOL nmos -560 -608 M0
WINDOW 3 -105 98 Left 2
SYMATTR Value IRLH5036
SYMATTR InstName M4
SYMBOL res -112 400 R0
SYMATTR InstName R9
SYMATTR Value 2k2
SYMBOL cap -112 512 R0
SYMATTR InstName C6
SYMATTR Value 10n
SYMBOL cap -1120 -704 R0
WINDOW 123 26 81 Left 2
SYMATTR Value2 x3
SYMATTR InstName C7
SYMATTR Value 10µ
SYMATTR SpiceLine V=100 Irms=0 Rser=0.003 Lser=1.2n mfg="Würth Elektronik" pn="885012214001 WCAP-CSGP 2220" type="X7R"
SYMBOL polcap -1248 -704 R0
WINDOW 3 24 56 Left 2
WINDOW 123 24 84 Left 2
SYMATTR Value 100µ
SYMATTR Value2 x3
SYMATTR InstName C8
SYMATTR Description Capacitor
SYMATTR Type cap
SYMATTR SpiceLine V=63 Irms=650m Rser=0.12 Lser=0
SYMBOL cap -512 -368 R0
WINDOW 0 32 13 Left 2
WINDOW 3 39 61 Left 2
SYMATTR InstName C9
SYMATTR Value 1µ
SYMBOL cap 240 -368 R0
WINDOW 0 33 11 Left 2
WINDOW 3 39 60 Left 2
SYMATTR InstName C10
SYMATTR Value 1µ
SYMBOL cap 720 -720 R0
WINDOW 123 26 82 Left 2
SYMATTR Value2 x3
SYMATTR InstName C11
SYMATTR Value 10µ
SYMATTR SpiceLine V=100 Irms=0 Rser=0.003 Lser=1.2n mfg="Würth Elektronik" pn="885012214001 WCAP-CSGP 2220" type="X7R"
SYMBOL voltage 1488 96 R0
WINDOW 123 0 0 Left 0
WINDOW 39 0 0 Left 0
SYMATTR InstName V3
SYMATTR Value 2.5
SYMBOL polcap 960 -720 R0
WINDOW 3 24 56 Left 2
WINDOW 123 24 84 Left 2
SYMATTR Value 100µ
SYMATTR Value2 x3
SYMATTR InstName C12
SYMATTR Description Capacitor
SYMATTR Type cap
SYMATTR SpiceLine V=63 Irms=650m Rser=0.12 Lser=0
SYMBOL LED -704 -64 R270
WINDOW 0 72 32 VTop 2
WINDOW 3 0 32 VBottom 2
SYMATTR InstName D4
SYMATTR Value NSCW100
SYMATTR Description Diode
SYMATTR Type diode
SYMBOL res -1360 -768 R90
WINDOW 0 0 56 VBottom 2
WINDOW 3 32 56 VTop 2
SYMATTR InstName R21
SYMATTR Value 0.003
SYMBOL voltage -2416 -688 R0
WINDOW 123 0 0 Left 0
WINDOW 39 0 0 Left 0
SYMATTR InstName V1
SYMATTR Value 12
SYMBOL res 1104 -720 R0
SYMATTR InstName R10
SYMATTR Value 1.5
SYMBOL res -1616 -464 R0
SYMATTR InstName R11
SYMATTR Value 102K
SYMATTR SpiceLine tol=1 pwr=0.1
SYMBOL res -1616 -288 R0
SYMATTR InstName R12
SYMATTR Value 10K
SYMATTR SpiceLine tol=1 pwr=0.1
SYMBOL nmos -1984 -464 M90
SYMATTR InstName M5
SYMATTR Value IRLH5036
SYMBOL res -1920 -672 R0
SYMATTR InstName R13
SYMATTR Value 100K
SYMATTR SpiceLine tol=1 pwr=0.1
SYMBOL zener -1760 -448 R180
WINDOW 0 24 64 Left 2
WINDOW 3 -18 0 VRight 2
SYMATTR InstName D1
SYMATTR Value BZX84B10VLY
SYMATTR Description Diode
SYMATTR Type diode
SYMBOL res -2160 -720 R0
SYMATTR InstName R14
SYMATTR Value 3.32K
SYMATTR SpiceLine tol=1 pwr=0.1
SYMBOL LED -2128 -560 R0
SYMATTR InstName D2
SYMATTR Value NSCW100
SYMATTR Description Diode
SYMATTR Type diode
SYMBOL LED -2160 -496 R180
WINDOW 0 24 64 Left 2
WINDOW 3 24 0 Left 2
SYMATTR InstName D3
SYMATTR Value NSCW100
SYMATTR Description Diode
SYMATTR Type diode
TEXT -1256 168 Left 2 !.tran 0 120m 0.2m startup uic
