Version 4
SHEET 1 1516 680
WIRE 848 32 672 32
WIRE 1088 32 848 32
WIRE 1440 32 1088 32
WIRE -32 48 -208 48
WIRE 80 48 -32 48
WIRE 304 48 176 48
WIRE 448 48 304 48
WIRE 848 80 848 32
WIRE -32 96 -32 48
WIRE 304 96 304 48
WIRE 672 112 672 32
WIRE -208 128 -208 48
WIRE 1088 128 1088 32
WIRE 1440 128 1440 32
WIRE 448 160 448 48
WIRE 160 192 160 96
WIRE 304 192 304 160
WIRE 304 192 160 192
WIRE 848 192 848 160
WIRE 848 192 816 192
WIRE 880 192 848 192
WIRE -32 208 -32 176
WIRE -32 208 -64 208
WIRE 0 208 -32 208
WIRE 160 224 160 192
WIRE 816 224 816 192
WIRE 880 224 880 192
WIRE -64 240 -64 208
WIRE 0 240 0 208
WIRE 1088 240 1088 208
WIRE 1216 240 1088 240
WIRE 1216 272 1216 240
WIRE 1088 320 1088 240
WIRE 672 368 672 192
WIRE 816 368 816 288
WIRE 816 368 672 368
WIRE 880 368 880 288
WIRE 880 368 816 368
WIRE 1008 368 880 368
WIRE 1216 368 1216 336
WIRE 1216 368 1104 368
WIRE 1440 368 1440 208
WIRE 1440 368 1216 368
WIRE -208 384 -208 208
WIRE -64 384 -64 304
WIRE -64 384 -208 384
WIRE 0 384 0 304
WIRE 0 384 -64 384
WIRE 160 384 160 304
WIRE 160 384 0 384
WIRE 448 384 448 240
WIRE 448 384 160 384
WIRE 160 400 160 384
WIRE 1440 400 1440 368
FLAG 160 400 0
FLAG 1440 400 0
SYMBOL pmos 80 96 R270
SYMATTR InstName M1
SYMATTR Value Si7461DP
SYMBOL Misc\\battery -208 224 R180
WINDOW 123 0 0 Left 0
WINDOW 39 0 0 Left 0
SYMATTR InstName V1
SYMATTR Value 56
SYMBOL res 144 208 R0
SYMATTR InstName R1
SYMATTR Value 100k
SYMBOL zener 320 160 R180
WINDOW 0 24 64 Left 2
WINDOW 3 24 0 Left 2
SYMATTR InstName D1
SYMATTR Value BZX84B10VLY
SYMATTR Description Diode
SYMATTR Type diode
SYMBOL res 432 144 R0
SYMATTR InstName R2
SYMATTR Value 11.2
SYMBOL res -48 80 R0
SYMATTR InstName R3
SYMATTR Value 3.3k
SYMBOL LED -16 240 R0
SYMATTR InstName D2
SYMATTR Value NSCW100
SYMATTR Description Diode
SYMATTR Type diode
SYMBOL LED -48 304 R180
WINDOW 0 24 64 Left 2
WINDOW 3 24 0 Left 2
SYMATTR InstName D3
SYMATTR Value NSCW100
SYMATTR Description Diode
SYMATTR Type diode
SYMBOL nmos 1008 320 M90
SYMATTR InstName M2
SYMATTR Value IRLH5036
SYMBOL Misc\\battery 672 96 R0
WINDOW 123 0 0 Left 0
WINDOW 39 0 0 Left 0
SYMATTR InstName V2
SYMATTR Value 56
SYMBOL res 1072 112 R0
SYMATTR InstName R4
SYMATTR Value 100k
SYMBOL zener 1232 336 R180
WINDOW 0 24 64 Left 2
WINDOW 3 -18 0 VRight 2
SYMATTR InstName D4
SYMATTR Value BZX84B10VLY
SYMATTR Description Diode
SYMATTR Type diode
SYMBOL res 832 64 R0
SYMATTR InstName R5
SYMATTR Value 3.3k
SYMBOL LED 864 224 R0
SYMATTR InstName D5
SYMATTR Value NSCW100
SYMATTR Description Diode
SYMATTR Type diode
SYMBOL LED 832 288 R180
WINDOW 0 24 64 Left 2
WINDOW 3 24 0 Left 2
SYMATTR InstName D6
SYMATTR Value NSCW100
SYMATTR Description Diode
SYMATTR Type diode
SYMBOL res 1424 112 R0
SYMATTR InstName R6
SYMATTR Value 11.2
TEXT -200 416 Left 2 !.tran 1
