Version 4
SHEET 1 1440 1124
WIRE -528 -768 -640 -768
WIRE -384 -768 -448 -768
WIRE -320 -768 -320 -848
WIRE -320 -768 -384 -768
WIRE -304 -768 -320 -768
WIRE -208 -768 -208 -848
WIRE -208 -768 -224 -768
WIRE -160 -768 -208 -768
WIRE 112 -768 -80 -768
WIRE 240 -768 112 -768
WIRE 448 -768 304 -768
WIRE 592 -768 448 -768
WIRE 768 -768 672 -768
WIRE 960 -768 768 -768
WIRE 1232 -768 960 -768
WIRE 960 -736 960 -768
WIRE -640 -688 -640 -768
WIRE -384 -688 -384 -768
WIRE 112 -672 112 -768
WIRE 1232 -672 1232 -768
WIRE 448 -656 448 -768
WIRE 768 -656 768 -768
WIRE 960 -640 960 -656
WIRE 960 -640 912 -640
WIRE 1040 -640 960 -640
WIRE 960 -608 960 -640
WIRE 64 -592 -16 -592
WIRE 768 -560 768 -592
WIRE 448 -544 448 -592
WIRE 1232 -544 1232 -592
WIRE -640 -528 -640 -608
WIRE -384 -528 -384 -624
WIRE 112 -512 112 -576
WIRE 960 -496 960 -528
WIRE 720 -384 576 -384
WIRE 912 -384 912 -640
WIRE 912 -384 800 -384
WIRE 576 -352 576 -384
WIRE 576 -240 576 -272
WIRE -480 -48 -480 -64
WIRE -368 -48 -480 -48
WIRE -480 -16 -480 -48
WIRE -368 -16 -368 -48
WIRE -368 80 -368 48
WIRE -48 80 -112 80
WIRE 224 80 224 64
WIRE 224 80 32 80
WIRE -480 96 -480 64
WIRE 224 112 224 80
WIRE -112 176 -112 80
WIRE 32 176 -112 176
WIRE 464 176 416 176
WIRE 32 240 -192 240
WIRE 464 240 416 240
WIRE -192 272 -192 240
WIRE -32 304 -112 304
WIRE 32 304 -32 304
WIRE 464 304 416 304
WIRE -112 320 -112 304
WIRE -32 336 -32 304
WIRE 464 368 416 368
WIRE -112 416 -112 384
WIRE -32 432 -32 416
WIRE 32 432 -32 432
WIRE 496 432 416 432
WIRE -32 464 -32 432
WIRE 96 528 96 496
WIRE 224 528 224 496
WIRE 352 528 352 496
WIRE 352 528 224 528
WIRE -32 560 -32 528
WIRE 352 576 352 528
WIRE 96 624 96 592
WIRE -192 672 -192 336
WIRE 496 672 496 432
WIRE 496 672 -192 672
WIRE 496 688 496 672
WIRE 496 784 496 768
WIRE 496 864 496 848
FLAG -640 -528 0
FLAG -384 -528 0
FLAG 112 -512 0
FLAG 448 -544 0
FLAG 1232 -544 0
FLAG 1232 -768 Vout
FLAG -640 -768 Vin
FLAG 960 -496 0
FLAG -16 -592 Gate
FLAG 768 -560 0
FLAG 576 -240 0
FLAG -480 96 0
FLAG -480 -64 Vcc
FLAG 224 64 Vcc
FLAG 352 576 0
FLAG 96 624 0
FLAG 496 864 0
FLAG -112 416 0
FLAG -32 560 0
FLAG 464 304 Gate
FLAG 1040 -640 Feedback
FLAG 464 368 Feedback
FLAG -368 80 0
FLAG -320 -848 Sense+
FLAG -208 -848 Sense-
FLAG 464 176 Sense+
FLAG 464 240 Sense-
SYMBOL PowerProducts\\LT1680 224 304 R0
SYMATTR InstName U1
SYMBOL cap -400 -688 R0
SYMATTR InstName C1
SYMATTR Value 5000µ
SYMBOL cap 432 -656 R0
SYMATTR InstName C2
SYMATTR Value 8000µ
SYMBOL ind -176 -752 R270
WINDOW 0 32 56 VTop 2
WINDOW 3 5 56 VBottom 2
SYMATTR InstName L1
SYMATTR Value 100µ
SYMATTR SpiceLine Ipk=67
SYMBOL res 1216 -688 R0
SYMATTR InstName Rl1
SYMATTR Value 5
SYMBOL res -432 -784 R90
WINDOW 0 0 56 VBottom 2
WINDOW 3 32 56 VTop 2
SYMATTR InstName R1
SYMATTR Value 0.1
SYMBOL voltage -640 -704 R0
WINDOW 123 0 0 Left 0
WINDOW 39 0 0 Left 0
SYMATTR InstName V1
SYMATTR Value 56
SYMBOL nmos 64 -672 R0
SYMATTR InstName M1
SYMATTR Value IRF6644
SYMBOL diode 240 -752 R270
WINDOW 0 32 32 VTop 2
WINDOW 3 0 32 VBottom 2
SYMATTR InstName D1
SYMBOL res 944 -752 R0
SYMATTR InstName R2
SYMATTR Value 56k
SYMBOL res 944 -624 R0
SYMATTR InstName R3
SYMATTR Value 1k3
SYMBOL ind 576 -752 R270
WINDOW 0 32 56 VTop 2
WINDOW 3 5 56 VBottom 2
SYMATTR InstName L2
SYMATTR Value 5µ
SYMBOL cap 752 -656 R0
SYMATTR InstName C3
SYMATTR Value 3.3µ
SYMBOL res 816 -400 R90
WINDOW 0 0 56 VBottom 2
WINDOW 3 32 56 VTop 2
SYMATTR InstName R4
SYMATTR Value 77k
SYMBOL voltage 576 -368 R0
WINDOW 123 0 0 Left 0
WINDOW 39 0 0 Left 0
SYMATTR InstName V3
SYMATTR Value 0
SYMBOL voltage -480 -32 R0
WINDOW 123 0 0 Left 0
WINDOW 39 0 0 Left 0
SYMATTR InstName V4
SYMATTR Value 12
SYMBOL cap 80 528 R0
SYMATTR InstName C4
SYMATTR Value 0.22µ
SYMBOL cap -384 -16 R0
SYMATTR InstName C5
SYMATTR Value 1µ
SYMBOL res 480 672 R0
SYMATTR InstName R5
SYMATTR Value 4k7
SYMBOL cap 480 784 R0
SYMATTR InstName C6
SYMATTR Value 4.7n
SYMBOL cap -128 320 R0
SYMATTR InstName C7
SYMATTR Value 1µ
SYMBOL res -48 320 R0
SYMATTR InstName R6
SYMATTR Value 16.9k
SYMBOL cap -48 464 R0
SYMATTR InstName C8
SYMATTR Value 1000p
SYMBOL cap -208 272 R0
SYMATTR InstName C9
SYMATTR Value 220p
SYMBOL res 48 64 R90
WINDOW 0 0 56 VBottom 2
WINDOW 3 32 56 VTop 2
SYMATTR InstName R7
SYMATTR Value 100k
SYMBOL res -208 -784 R90
WINDOW 0 0 56 VBottom 2
WINDOW 3 32 56 VTop 2
SYMATTR InstName R8
SYMATTR Value 0.0012
TEXT -680 -952 Left 2 !.tran 0 0.06 0 0.5u uic
