Version 4
SHEET 1 5272 1964
WIRE 320 1152 240 1152
WIRE 448 1152 384 1152
WIRE 528 1216 496 1216
WIRE 624 1216 608 1216
WIRE 656 1216 624 1216
WIRE 768 1216 736 1216
WIRE 240 1232 240 1152
WIRE 304 1232 240 1232
WIRE 448 1232 448 1152
WIRE 448 1232 384 1232
WIRE 496 1248 496 1216
WIRE -368 1280 -368 1264
WIRE -96 1280 -368 1280
WIRE -480 1344 -528 1344
WIRE -256 1344 -416 1344
WIRE 1232 1344 1232 1296
WIRE 1504 1344 1504 1296
WIRE 672 1360 672 1328
WIRE 336 1376 336 1344
WIRE 624 1376 624 1216
WIRE 640 1376 624 1376
WIRE 240 1392 240 1232
WIRE 240 1392 160 1392
WIRE 304 1392 240 1392
WIRE 768 1392 768 1216
WIRE 768 1392 704 1392
WIRE 816 1392 768 1392
WIRE 448 1408 448 1232
WIRE 448 1408 368 1408
WIRE 640 1408 448 1408
WIRE -368 1424 -368 1280
WIRE 304 1424 256 1424
WIRE -768 1440 -944 1440
WIRE -688 1440 -768 1440
WIRE -528 1440 -528 1344
WIRE -528 1440 -608 1440
WIRE -400 1440 -528 1440
WIRE 1232 1440 1232 1424
WIRE 1328 1440 1232 1440
WIRE 1504 1440 1504 1424
WIRE 1504 1440 1408 1440
WIRE -256 1456 -256 1344
WIRE -256 1456 -336 1456
WIRE -208 1456 -256 1456
WIRE -80 1456 -128 1456
WIRE -400 1472 -432 1472
WIRE 672 1472 672 1424
WIRE 1232 1472 1232 1440
WIRE -944 1488 -944 1440
WIRE 1504 1488 1504 1440
WIRE -96 1504 -96 1280
WIRE -80 1504 -96 1504
WIRE -768 1520 -768 1440
WIRE -432 1536 -432 1472
WIRE -368 1536 -368 1488
WIRE -368 1536 -432 1536
WIRE -528 1552 -528 1440
WIRE -80 1552 -528 1552
WIRE 160 1552 160 1392
WIRE 160 1552 32 1552
WIRE -80 1600 -528 1600
WIRE 160 1600 32 1600
WIRE 256 1600 256 1424
WIRE 256 1600 160 1600
WIRE 336 1600 336 1440
WIRE 336 1600 256 1600
WIRE 160 1648 160 1600
WIRE -944 1664 -944 1568
WIRE -768 1664 -768 1600
WIRE -768 1664 -944 1664
WIRE -528 1664 -528 1600
WIRE -528 1664 -768 1664
WIRE -368 1664 -368 1536
WIRE -368 1664 -528 1664
WIRE -368 1712 -368 1664
FLAG 1232 1472 0
FLAG 160 1648 0
FLAG -368 1712 COM
FLAG 496 1248 0
FLAG 1232 1296 Vc
FLAG 1504 1488 COM
FLAG 672 1328 Vc
FLAG 336 1344 Vc
FLAG 1504 1296 Viso
FLAG -368 1264 Viso
FLAG 672 1472 0
SYMBOL cap -416 1328 R90
WINDOW 0 0 32 VBottom 2
WINDOW 3 32 32 VTop 2
SYMATTR InstName C1
SYMATTR Value 100p
SYMBOL res -112 1440 R90
WINDOW 0 0 56 VBottom 2
WINDOW 3 32 56 VTop 2
SYMATTR InstName R11
SYMATTR Value 390
SYMBOL current -944 1568 R180
WINDOW 123 0 0 Left 0
WINDOW 39 0 0 Left 0
SYMATTR InstName I2
SYMATTR Value 19m
SYMBOL voltage 1232 1328 R0
WINDOW 0 24 96 Left 2
WINDOW 3 24 16 Left 2
WINDOW 123 0 0 Left 0
WINDOW 39 0 0 Left 0
SYMATTR InstName V1
SYMATTR Value 5.5
SYMBOL res 400 1216 R90
WINDOW 0 0 56 VBottom 2
WINDOW 3 32 56 VTop 2
SYMATTR InstName R21
SYMATTR Value 4k7
SYMBOL cap 384 1136 R90
WINDOW 0 0 32 VBottom 2
WINDOW 3 32 32 VTop 2
SYMATTR InstName C3
SYMATTR Value 100p
SYMBOL OpAmps\\AD822 -368 1392 R0
SYMATTR InstName U1
SYMBOL OpAmps\\AD822 672 1328 R0
SYMATTR InstName U2
SYMBOL OpAmps\\AD822 336 1344 R0
SYMATTR InstName U3
SYMBOL res -784 1504 R0
SYMATTR InstName R1
SYMATTR Value 250
SYMBOL res -592 1424 R90
WINDOW 0 0 56 VBottom 2
WINDOW 3 32 56 VTop 2
SYMATTR InstName R2
SYMATTR Value 47k
SYMBOL res 752 1200 R90
WINDOW 0 0 56 VBottom 2
WINDOW 3 32 56 VTop 2
SYMATTR InstName R3
SYMATTR Value 42k
SYMBOL res 624 1200 R90
WINDOW 0 0 56 VBottom 2
WINDOW 3 32 56 VTop 2
SYMATTR InstName R4
SYMATTR Value 4k7
SYMBOL res 1424 1424 R90
WINDOW 0 0 56 VBottom 2
WINDOW 3 32 56 VTop 2
SYMATTR InstName R5
SYMATTR Value 100Meg
SYMBOL voltage 1504 1328 R0
WINDOW 123 0 0 Left 0
WINDOW 39 0 0 Left 0
SYMATTR InstName V2
SYMATTR Value 12
SYMBOL AutoGenerated\\CNR200 -16 1520 R0
SYMATTR InstName U4
TEXT -888 1840 Left 2 !.tran 1.1
