Version 4
SHEET 1 5272 3260
WIRE 1232 1344 1232 1296
WIRE 1504 1344 1504 1296
WIRE 1232 1440 1232 1424
WIRE 1328 1440 1232 1440
WIRE 1504 1440 1504 1424
WIRE 1504 1440 1408 1440
WIRE 1232 1472 1232 1440
WIRE 1504 1488 1504 1440
WIRE -416 2880 -448 2880
WIRE -80 2912 -128 2912
WIRE -448 2928 -448 2880
WIRE -416 2944 -480 2944
WIRE -80 2944 -80 2912
WIRE -480 3008 -480 2944
WIRE -416 3008 -480 3008
WIRE 16 3008 -128 3008
WIRE -416 3072 -656 3072
WIRE -656 3104 -656 3072
WIRE -96 3184 -128 3184
WIRE -416 3200 -464 3200
WIRE -656 3232 -656 3184
FLAG 1232 1472 0
FLAG 1232 1296 Vc
FLAG 1504 1488 COM
FLAG 1504 1296 Viso
FLAG -448 2928 COM
FLAG -80 2944 0
FLAG -464 3200 Viso
FLAG -96 3184 Vc
FLAG -656 3232 COM
SYMBOL voltage 1232 1328 R0
WINDOW 0 24 96 Left 2
WINDOW 3 24 16 Left 2
WINDOW 123 0 0 Left 0
WINDOW 39 0 0 Left 0
SYMATTR InstName V1
SYMATTR Value 12
SYMBOL res 1424 1424 R90
WINDOW 0 0 56 VBottom 2
WINDOW 3 32 56 VTop 2
SYMATTR InstName R5
SYMATTR Value 100Meg
SYMBOL voltage 1504 1328 R0
WINDOW 123 0 0 Left 0
WINDOW 39 0 0 Left 0
SYMATTR InstName V2
SYMATTR Value 12
SYMBOL PowerProducts\\ADuM4195 -288 3056 R180
SYMATTR InstName U6
SYMBOL voltage -656 3088 R0
WINDOW 123 0 0 Left 0
WINDOW 39 0 0 Left 0
SYMATTR InstName V4
SYMATTR Value 2.5
TEXT -888 1840 Left 2 !.tran .2
