Version 4
SHEET 1 3360 2308
WIRE -416 -208 -720 -208
WIRE -256 -208 -416 -208
WIRE -160 -208 -256 -208
WIRE 0 -208 -160 -208
WIRE 64 -208 0 -208
WIRE 208 -208 144 -208
WIRE 384 -208 208 -208
WIRE 464 -208 384 -208
WIRE 560 -208 464 -208
WIRE 672 -208 560 -208
WIRE 720 -208 672 -208
WIRE 1344 -208 1168 -208
WIRE 1408 -208 1344 -208
WIRE 1472 -208 1408 -208
WIRE 1536 -208 1472 -208
WIRE 1600 -208 1536 -208
WIRE 1664 -208 1600 -208
WIRE 1728 -208 1664 -208
WIRE 1792 -208 1728 -208
WIRE 1904 -208 1792 -208
WIRE 1968 -208 1904 -208
WIRE 2032 -208 1968 -208
WIRE 2096 -208 2032 -208
WIRE 2272 -208 2096 -208
WIRE 1344 -192 1344 -208
WIRE 1408 -192 1408 -208
WIRE 1472 -192 1472 -208
WIRE 1536 -192 1536 -208
WIRE 1600 -192 1600 -208
WIRE 1664 -192 1664 -208
WIRE 1728 -192 1728 -208
WIRE 1792 -192 1792 -208
WIRE 1904 -192 1904 -208
WIRE 1968 -192 1968 -208
WIRE 2032 -192 2032 -208
WIRE 2096 -192 2096 -208
WIRE 2272 -176 2272 -208
WIRE 560 -128 560 -208
WIRE 672 -128 672 -208
WIRE 0 -96 0 -208
WIRE 80 -96 0 -96
WIRE 208 -96 208 -208
WIRE 208 -96 144 -96
WIRE 1344 -96 1344 -128
WIRE 1408 -96 1408 -128
WIRE 1408 -96 1344 -96
WIRE 1472 -96 1472 -128
WIRE 1472 -96 1408 -96
WIRE 1536 -96 1536 -128
WIRE 1536 -96 1472 -96
WIRE 1600 -96 1600 -128
WIRE 1600 -96 1536 -96
WIRE 1664 -96 1664 -128
WIRE 1664 -96 1600 -96
WIRE 1728 -96 1728 -128
WIRE 1728 -96 1664 -96
WIRE 1792 -96 1792 -128
WIRE 1792 -96 1728 -96
WIRE -256 -80 -256 -208
WIRE -160 -80 -160 -208
WIRE 384 -80 384 -208
WIRE 464 -80 464 -208
WIRE 1904 -80 1904 -128
WIRE 1968 -80 1968 -128
WIRE 1968 -80 1904 -80
WIRE 2032 -80 2032 -128
WIRE 2032 -80 1968 -80
WIRE 2096 -80 2096 -128
WIRE 2096 -80 2032 -80
WIRE 0 -64 0 -96
WIRE 208 -64 208 -96
WIRE 1600 -48 1600 -96
WIRE 1904 -48 1904 -80
WIRE 2272 -48 2272 -96
WIRE -416 0 -416 -208
WIRE -256 16 -256 -16
WIRE -160 16 -160 -16
WIRE -160 16 -256 16
WIRE 384 16 384 -16
WIRE 464 16 464 -16
WIRE 464 16 384 16
WIRE 720 16 720 -208
WIRE 1168 16 1168 -208
WIRE -720 32 -720 -208
WIRE -256 48 -256 16
WIRE 384 64 384 16
WIRE 0 96 0 16
WIRE 208 96 208 16
WIRE 672 96 608 96
WIRE 1296 96 1216 96
WIRE -416 112 -416 80
WIRE -352 112 -416 112
WIRE 720 128 720 112
WIRE 720 128 672 128
WIRE 1168 128 1168 112
WIRE 1216 128 1168 128
WIRE -416 144 -416 112
WIRE 560 160 512 160
WIRE 720 160 720 128
WIRE 720 160 624 160
WIRE 784 160 720 160
WIRE 816 160 784 160
WIRE 928 160 896 160
WIRE 960 160 928 160
WIRE 1168 160 1168 128
WIRE 1168 160 1040 160
WIRE 1264 160 1168 160
WIRE 1392 160 1328 160
WIRE 720 192 720 160
WIRE 784 192 784 160
WIRE 928 192 928 160
WIRE 1168 192 1168 160
WIRE -720 272 -720 112
WIRE 672 272 608 272
WIRE 1296 272 1216 272
WIRE -416 320 -416 224
WIRE 720 336 720 288
WIRE 1168 336 1168 288
WIRE 784 800 784 752
WIRE 912 800 912 752
WIRE 1040 800 1040 752
WIRE 1168 800 1168 752
WIRE 672 880 608 880
WIRE 1344 880 1280 880
WIRE 128 960 128 912
WIRE 672 976 608 976
WIRE 1344 976 1280 976
WIRE 672 1056 608 1056
WIRE 1344 1056 1280 1056
WIRE 128 1104 128 1040
WIRE 384 1136 320 1136
WIRE 672 1136 384 1136
WIRE 1488 1136 1280 1136
WIRE 1552 1136 1488 1136
WIRE 384 1152 384 1136
WIRE 1488 1152 1488 1136
WIRE 128 1232 128 1184
WIRE 672 1232 128 1232
WIRE 1344 1232 1280 1232
WIRE 128 1248 128 1232
WIRE 1488 1248 1488 1216
WIRE 1744 1264 1744 1216
WIRE 384 1328 384 1216
WIRE 432 1328 384 1328
WIRE 672 1328 496 1328
WIRE 1344 1328 1280 1328
WIRE 128 1360 128 1328
WIRE 384 1376 384 1328
WIRE 496 1424 496 1328
WIRE 544 1424 496 1424
WIRE 672 1424 624 1424
WIRE 1744 1424 1744 1344
WIRE 1744 1424 1280 1424
WIRE 1856 1424 1744 1424
WIRE 2112 1424 1936 1424
WIRE 1744 1472 1744 1424
WIRE 128 1488 128 1440
WIRE 480 1520 416 1520
WIRE 592 1520 544 1520
WIRE 672 1520 592 1520
WIRE 1376 1520 1280 1520
WIRE 416 1568 416 1520
WIRE 1744 1568 1744 1552
WIRE 592 1616 592 1520
WIRE 672 1616 592 1616
WIRE 1376 1616 1280 1616
WIRE 592 1712 592 1616
WIRE 672 1712 592 1712
WIRE 672 1792 592 1792
WIRE 1376 1792 1280 1792
WIRE 592 1840 592 1792
WIRE 1376 1840 1376 1792
WIRE 2144 1872 2096 1872
WIRE 2272 1872 2224 1872
WIRE 784 1936 784 1888
WIRE 976 1936 976 1888
WIRE 1168 1936 1168 1888
WIRE 2160 2016 2160 1984
WIRE 784 2032 784 2000
WIRE 1984 2032 1728 2032
WIRE 2096 2032 2096 1872
WIRE 2096 2032 2064 2032
WIRE 2128 2032 2096 2032
WIRE 1168 2048 1168 2016
WIRE 1728 2048 1728 2032
WIRE 2272 2048 2272 1872
WIRE 2272 2048 2192 2048
WIRE 2320 2048 2272 2048
WIRE 976 2064 976 2016
WIRE 2128 2064 2096 2064
WIRE 2160 2112 2160 2080
WIRE 1728 2144 1728 2128
WIRE 1952 2144 1888 2144
WIRE 2096 2144 2096 2064
WIRE 2096 2144 2032 2144
WIRE 976 2160 976 2128
WIRE 1888 2176 1888 2144
WIRE 2096 2176 2096 2144
WIRE 1888 2288 1888 2256
WIRE 2096 2288 2096 2256
FLAG -416 320 0
FLAG -256 48 0
FLAG 384 64 0
FLAG 720 336 0
FLAG 1168 336 0
FLAG 1600 -48 0
FLAG 1904 -48 0
FLAG -352 112 FB_Buck
FLAG 0 96 ISP
FLAG 208 96 ISN
FLAG 608 96 TG1
FLAG 1296 96 TG2
FLAG 512 160 BST1
FLAG 1392 160 BST2
FLAG 672 128 SW1
FLAG 1216 128 SW2
FLAG 608 272 BG1
FLAG 1296 272 BG2
FLAG 672 -128 Vin
FLAG 560 -128 EN/UVLO
FLAG 784 192 LSP
FLAG 928 192 LSN
FLAG 2272 -208 Vout
FLAG 384 1376 0
FLAG 320 1136 Vin
FLAG 128 912 EN/UVLO
FLAG 128 1488 0
FLAG 784 752 SW1
FLAG 912 752 LSP
FLAG 1040 752 LSN
FLAG 1168 752 SW2
FLAG 608 880 BST1
FLAG 608 976 BG1
FLAG 608 1056 TG1
FLAG 1344 1056 TG2
FLAG 1344 976 BG2
FLAG 1344 880 BST2
FLAG 1376 1840 0
FLAG 416 1568 0
FLAG 592 1840 0
FLAG 976 2160 0
FLAG 784 2032 0
FLAG 1168 2048 0
FLAG 1552 1136 Vout
FLAG 1488 1248 0
FLAG 1344 1232 ISP
FLAG 1344 1328 ISN
FLAG -720 272 0
FLAG 1744 1568 0
FLAG 1744 1216 Vout
FLAG 2272 -48 0
FLAG 2160 1984 Vcc
FLAG 2320 2048 Vcontrol
FLAG 1888 2288 0
FLAG 2096 2288 0
FLAG 2160 2112 0
FLAG 1728 2144 0
FLAG 2112 1424 Vcontrol
FLAG 1728 2032 Signal_Control
SYMBOL res -432 -16 R0
SYMATTR InstName R2
SYMATTR Value 102k
SYMBOL res -432 128 R0
SYMATTR InstName R3
SYMATTR Value 10k
SYMBOL polcap -272 -80 R0
WINDOW 3 24 56 Left 2
SYMATTR Value 470µ
SYMATTR InstName C1
SYMATTR Description Capacitor
SYMATTR Type cap
SYMATTR SpiceLine V=63 Irms=1.45 Rser=0.07 Lser=0 mfg="Panasonic" pn="ECA1JFQ471" type="Al electrolytic"
SYMBOL res -16 -80 R0
SYMATTR InstName R4
SYMATTR Value 10
SYMBOL res 192 -80 R0
SYMATTR InstName R5
SYMATTR Value 10
SYMBOL cap 144 -112 R90
WINDOW 0 0 32 VBottom 2
WINDOW 3 32 32 VTop 2
SYMATTR InstName C3
SYMATTR Value 2.2µ
SYMBOL res 160 -224 R90
WINDOW 0 0 56 VBottom 2
WINDOW 3 32 56 VTop 2
SYMATTR InstName R6
SYMATTR Value 3m
SYMBOL cap 368 -80 R0
SYMATTR InstName C4
SYMATTR Value 10µ
SYMBOL cap 448 -80 R0
SYMATTR InstName C5
SYMATTR Value 10µ
SYMBOL nmos 672 16 R0
SYMATTR InstName M2
SYMATTR Value AOB66613L
SYMBOL nmos 672 192 R0
SYMATTR InstName M3
SYMATTR Value AOB66613L
SYMBOL nmos 1216 16 M0
SYMATTR InstName M4
SYMATTR Value AOB66613L
SYMBOL nmos 1216 192 M0
SYMATTR InstName M5
SYMATTR Value AOB66613L
SYMBOL res 912 144 R90
WINDOW 0 0 56 VBottom 2
WINDOW 3 32 56 VTop 2
SYMATTR InstName R7
SYMATTR Value .2m
SYMBOL ind 944 176 R270
WINDOW 0 32 56 VTop 2
WINDOW 3 5 56 VBottom 2
SYMATTR InstName L1
SYMATTR Value 6.8µ
SYMATTR SpiceLine Ipk=56 Rser=0.0023 Rpar=640.56 Cpar=0 mfg="Coilcraft" pn="AGP2923-682"
SYMBOL cap 624 144 R90
WINDOW 0 0 32 VBottom 2
WINDOW 3 32 32 VTop 2
SYMATTR InstName C6
SYMATTR Value .1µ
SYMBOL cap 1328 144 R90
WINDOW 0 0 32 VBottom 2
WINDOW 3 32 32 VTop 2
SYMATTR InstName C7
SYMATTR Value .1µ
SYMBOL cap 1392 -192 R0
SYMATTR InstName C9
SYMATTR Value 10µ
SYMATTR SpiceLine V=100 Irms=0 Rser=0.003 Lser=1.2n mfg="Würth Elektronik" pn="885012214001 WCAP-CSGP 2220" type="X7R"
SYMBOL polcap 1888 -192 R0
WINDOW 3 24 56 Left 2
SYMATTR Value 1000µ
SYMATTR InstName C16
SYMATTR Description Capacitor
SYMATTR Type cap
SYMATTR SpiceLine V=63 Irms=2.11 Rser=0.048 Lser=0 mfg="Panasonic" pn="ECA1JFQ102" type="Al electrolytic"
SYMBOL voltage -720 16 R0
WINDOW 123 0 0 Left 0
WINDOW 39 0 0 Left 0
SYMATTR InstName V1
SYMATTR Value 12
SYMBOL polcap -176 -80 R0
WINDOW 3 24 56 Left 2
SYMATTR Value 470µ
SYMATTR InstName C2
SYMATTR Description Capacitor
SYMATTR Type cap
SYMATTR SpiceLine V=63 Irms=1.45 Rser=0.07 Lser=0 mfg="Panasonic" pn="ECA1JFQ471" type="Al electrolytic"
SYMBOL cap 1328 -192 R0
SYMATTR InstName C8
SYMATTR Value 10µ
SYMATTR SpiceLine V=100 Irms=0 Rser=0.003 Lser=1.2n mfg="Würth Elektronik" pn="885012214001 WCAP-CSGP 2220" type="X7R"
SYMBOL cap 1456 -192 R0
SYMATTR InstName C10
SYMATTR Value 10µ
SYMATTR SpiceLine V=100 Irms=0 Rser=0.003 Lser=1.2n mfg="Würth Elektronik" pn="885012214001 WCAP-CSGP 2220" type="X7R"
SYMBOL cap 1520 -192 R0
SYMATTR InstName C11
SYMATTR Value 10µ
SYMATTR SpiceLine V=100 Irms=0 Rser=0.003 Lser=1.2n mfg="Würth Elektronik" pn="885012214001 WCAP-CSGP 2220" type="X7R"
SYMBOL cap 1584 -192 R0
SYMATTR InstName C12
SYMATTR Value 10µ
SYMATTR SpiceLine V=100 Irms=0 Rser=0.003 Lser=1.2n mfg="Würth Elektronik" pn="885012214001 WCAP-CSGP 2220" type="X7R"
SYMBOL cap 1648 -192 R0
SYMATTR InstName C13
SYMATTR Value 10µ
SYMATTR SpiceLine V=100 Irms=0 Rser=0.003 Lser=1.2n mfg="Würth Elektronik" pn="885012214001 WCAP-CSGP 2220" type="X7R"
SYMBOL cap 1712 -192 R0
SYMATTR InstName C14
SYMATTR Value 10µ
SYMATTR SpiceLine V=100 Irms=0 Rser=0.003 Lser=1.2n mfg="Würth Elektronik" pn="885012214001 WCAP-CSGP 2220" type="X7R"
SYMBOL cap 1776 -192 R0
SYMATTR InstName C15
SYMATTR Value 10µ
SYMATTR SpiceLine V=100 Irms=0 Rser=0.003 Lser=1.2n mfg="Würth Elektronik" pn="885012214001 WCAP-CSGP 2220" type="X7R"
SYMBOL polcap 1952 -192 R0
WINDOW 3 24 56 Left 2
SYMATTR Value 1000µ
SYMATTR InstName C17
SYMATTR Description Capacitor
SYMATTR Type cap
SYMATTR SpiceLine V=63 Irms=2.11 Rser=0.048 Lser=0 mfg="Panasonic" pn="ECA1JFQ102" type="Al electrolytic"
SYMBOL polcap 2016 -192 R0
WINDOW 3 24 56 Left 2
SYMATTR Value 1000µ
SYMATTR InstName C18
SYMATTR Description Capacitor
SYMATTR Type cap
SYMATTR SpiceLine V=63 Irms=2.11 Rser=0.048 Lser=0 mfg="Panasonic" pn="ECA1JFQ102" type="Al electrolytic"
SYMBOL polcap 2080 -192 R0
WINDOW 3 24 56 Left 2
SYMATTR Value 1000µ
SYMATTR InstName C19
SYMATTR Description Capacitor
SYMATTR Type cap
SYMATTR SpiceLine V=63 Irms=2.11 Rser=0.048 Lser=0 mfg="Panasonic" pn="ECA1JFQ102" type="Al electrolytic"
SYMBOL PowerProducts\\LT8390 976 1344 R0
SYMATTR InstName U1
SYMBOL cap 368 1152 R0
SYMATTR InstName C20
SYMATTR Value 1µ
SYMBOL cap 496 1312 R90
WINDOW 0 0 32 VBottom 2
WINDOW 3 32 32 VTop 2
SYMATTR InstName C21
SYMATTR Value 4.7µ
SYMBOL res 112 1088 R0
SYMATTR InstName R8
SYMATTR Value 150k
SYMBOL res 112 1232 R0
SYMATTR InstName R9
SYMATTR Value 30k
SYMBOL res 112 1344 R0
SYMATTR InstName R10
SYMATTR Value 15k
SYMBOL res 112 944 R0
SYMATTR InstName R11
SYMATTR Value 100k
SYMBOL res 640 1408 R90
WINDOW 0 0 56 VBottom 2
WINDOW 3 32 56 VTop 2
SYMATTR InstName R12
SYMATTR Value 100k
SYMBOL cap 544 1504 R90
WINDOW 0 0 32 VBottom 2
WINDOW 3 32 32 VTop 2
SYMATTR InstName C22
SYMATTR Value .47µ
SYMBOL cap 768 1936 R0
SYMATTR InstName C23
SYMATTR Value .1µ
SYMBOL res 960 1920 R0
SYMATTR InstName R13
SYMATTR Value 15k
SYMBOL cap 960 2064 R0
SYMATTR InstName C24
SYMATTR Value 15n
SYMBOL res 1152 1920 R0
SYMATTR InstName R14
SYMATTR Value 309k
SYMBOL cap 1472 1152 R0
SYMATTR InstName C25
SYMATTR Value 1µ
SYMBOL res 1728 1248 R0
SYMATTR InstName R1
SYMATTR Value 560k
SYMBOL res 1728 1456 R0
SYMATTR InstName R15
SYMATTR Value 12.8k
SYMBOL res 1952 1408 R90
WINDOW 0 0 56 VBottom 2
WINDOW 3 32 56 VTop 2
SYMATTR InstName R16
SYMATTR Value 50k
SYMBOL current 2272 -176 R0
WINDOW 123 0 0 Left 0
WINDOW 39 0 0 Left 0
SYMATTR InstName I1
SYMATTR Value PWL(0 0 35m 0 35.1m 5)
SYMBOL res 2080 2016 R90
WINDOW 0 0 56 VBottom 2
WINDOW 3 32 56 VTop 2
SYMATTR InstName R17
SYMATTR Value 10k
SYMBOL res 2240 1856 R90
WINDOW 0 0 56 VBottom 2
WINDOW 3 32 56 VTop 2
SYMATTR InstName R18
SYMATTR Value 10k
SYMBOL res 2112 2272 R180
WINDOW 0 36 76 Left 2
WINDOW 3 36 40 Left 2
SYMATTR InstName R19
SYMATTR Value 10k
SYMBOL voltage 1888 2160 R0
WINDOW 123 0 0 Left 0
WINDOW 39 0 0 Left 0
SYMATTR InstName V3
SYMATTR Value 5
SYMBOL res 2048 2128 R90
WINDOW 0 0 56 VBottom 2
WINDOW 3 32 56 VTop 2
SYMATTR InstName R20
SYMATTR Value 10k
SYMBOL OpAmps\\LT1800 2160 1984 R0
SYMATTR InstName U2
SYMBOL voltage 1728 2032 R0
WINDOW 123 0 0 Left 0
WINDOW 39 0 0 Left 0
SYMATTR InstName V4
SYMATTR Value 5
TEXT -560 1216 Left 2 !.tran 0 1 0.2m uic
