Version 4
SHEET 1 1480 680
WIRE 704 -16 560 -16
WIRE 832 -16 704 -16
WIRE 1056 -16 960 -16
WIRE 1200 -16 1056 -16
WIRE 1424 -16 1200 -16
WIRE 1056 16 1056 -16
WIRE 560 80 560 -16
WIRE 704 96 704 -16
WIRE 1200 96 1200 -16
WIRE 1424 96 1424 -16
WIRE 896 128 896 32
WIRE 1056 128 1056 96
WIRE 1056 128 896 128
WIRE 1056 176 1056 128
WIRE 560 288 560 160
WIRE 704 288 704 160
WIRE 704 288 560 288
WIRE 1056 288 1056 256
WIRE 1056 288 704 288
WIRE 1200 288 1200 160
WIRE 1200 288 1056 288
WIRE 1424 288 1424 176
WIRE 1424 288 1200 288
WIRE 1056 336 1056 288
FLAG 1056 336 0
FLAG 1424 -16 Vload
FLAG 560 -16 Vin
SYMBOL Misc\\LM317 896 -16 R0
SYMATTR InstName U1
SYMBOL res 1040 160 R0
SYMATTR InstName R2
SYMATTR Value 1.8k
SYMBOL res 1040 0 R0
SYMATTR InstName R3
SYMATTR Value 470
SYMBOL polcap 688 96 R0
WINDOW 3 24 56 Left 2
SYMATTR InstName C3
SYMATTR Value 10µ
SYMATTR Description Capacitor
SYMATTR Type cap
SYMATTR SpiceLine V=63 Irms=42m Rser=1.6746 Lser=3.766n mfg="Würth Elektronik" pn="860020772010 WCAP-ATG5 5x11" type="Al electrolytic"
SYMBOL cap 1184 96 R0
SYMATTR InstName C4
SYMATTR Value 0.01µ
SYMATTR SpiceLine V=10 Irms=0 Rser=0.0697 Lser=689p mfg="Würth Elektronik" pn="885012208008 WCAP-CSGP 1206" type="X7R"
SYMBOL voltage 560 64 R0
WINDOW 123 0 0 Left 0
WINDOW 39 0 0 Left 0
SYMATTR InstName V2
SYMATTR Value 8
SYMBOL res 1408 80 R0
SYMATTR InstName R1
SYMATTR Value 1k
TEXT 544 416 Left 2 !.tran 1
