*SRC=DFLS1100;DI_DFLS1100;Diodes;Si;  100V  1.00A  11.0ns   Diodes Inc. Schottky Rectifier
.MODEL DI_DFLS1100 D  ( IS=270n RS=28.3m BV=100 IBV=1.00u
+ CJO=70.9p  M=0.333 N=1.50 TT=15.8n )