Version 4
SHEET 1 5272 1124
WIRE -688 -1472 -688 -1504
WIRE -688 -1376 -688 -1392
WIRE -640 -1376 -688 -1376
WIRE -688 -1360 -688 -1376
WIRE -688 -1232 -688 -1280
WIRE -576 -1232 -688 -1232
WIRE 32 -1216 -128 -1216
WIRE -688 -1184 -688 -1232
WIRE -1120 -1168 -1120 -1248
WIRE -128 -1152 -128 -1216
WIRE -1120 -1056 -1120 -1088
WIRE -688 -1056 -688 -1104
WIRE -128 -1040 -128 -1072
WIRE -1872 -928 -2048 -928
WIRE -1968 -864 -1968 -896
WIRE -2048 -848 -2048 -928
WIRE -2000 -848 -2048 -848
WIRE -1872 -832 -1872 -928
WIRE -1872 -832 -1936 -832
WIRE -1808 -832 -1872 -832
WIRE -1776 -832 -1808 -832
WIRE -2304 -816 -2384 -816
WIRE -2128 -816 -2224 -816
WIRE -2000 -816 -2128 -816
WIRE -1808 -800 -1808 -832
WIRE -1968 -784 -1968 -800
WIRE -2128 -768 -2128 -816
WIRE -1168 -768 -1168 -800
WIRE -960 -768 -1168 -768
WIRE -624 -768 -960 -768
WIRE -1168 -736 -1168 -768
WIRE 1616 -736 1568 -736
WIRE 1744 -736 1696 -736
WIRE 640 -720 640 -784
WIRE -1808 -704 -1808 -736
WIRE -2128 -656 -2128 -704
WIRE 1312 -656 1088 -656
WIRE 1376 -640 1376 -784
WIRE -1168 -624 -1168 -656
WIRE -576 -624 -1168 -624
WIRE 1184 -608 1184 -672
WIRE 288 -592 288 -656
WIRE 1088 -592 1088 -656
WIRE 1152 -592 1088 -592
WIRE 1632 -592 1632 -624
WIRE 1312 -576 1312 -656
WIRE 1312 -576 1216 -576
WIRE 1456 -576 1312 -576
WIRE 1568 -576 1568 -736
WIRE 1568 -576 1536 -576
WIRE 1600 -576 1568 -576
WIRE 640 -560 640 -640
WIRE 752 -560 640 -560
WIRE 960 -560 832 -560
WIRE 1152 -560 960 -560
WIRE 1744 -560 1744 -736
WIRE 1744 -560 1664 -560
WIRE 1808 -560 1744 -560
WIRE 1888 -560 1808 -560
WIRE -896 -544 -992 -544
WIRE -624 -544 -624 -768
WIRE -624 -544 -672 -544
WIRE 1600 -544 1568 -544
WIRE -992 -528 -992 -544
WIRE -96 -528 -96 -576
WIRE 640 -528 640 -560
WIRE 1808 -528 1808 -560
WIRE 960 -512 960 -560
WIRE 1184 -512 1184 -544
WIRE 1632 -496 1632 -528
WIRE -896 -480 -1008 -480
WIRE -576 -480 -576 -624
WIRE -576 -480 -672 -480
WIRE 288 -480 288 -512
WIRE 400 -480 288 -480
WIRE 576 -480 480 -480
WIRE -1168 -464 -1168 -624
WIRE 1424 -464 1360 -464
WIRE 1568 -464 1568 -544
WIRE 1568 -464 1504 -464
WIRE -288 -448 -288 -480
WIRE 288 -448 288 -480
WIRE 1568 -432 1568 -464
WIRE 1808 -432 1808 -464
WIRE -624 -416 -672 -416
WIRE -320 -416 -624 -416
WIRE 960 -416 960 -448
WIRE -96 -400 -96 -448
WIRE -96 -400 -240 -400
WIRE 48 -400 -96 -400
WIRE 224 -400 128 -400
WIRE -320 -384 -368 -384
WIRE 640 -384 640 -432
WIRE -960 -352 -960 -768
WIRE -896 -352 -960 -352
WIRE -592 -352 -672 -352
WIRE -288 -320 -288 -352
WIRE 1568 -320 1568 -352
WIRE 288 -304 288 -352
WIRE -592 -288 -592 -352
WIRE -1168 -240 -1168 -384
WIRE -1008 -240 -1008 -480
WIRE -1008 -240 -1168 -240
WIRE -624 -240 -624 -416
WIRE -624 -240 -1008 -240
WIRE -1168 -208 -1168 -240
WIRE -592 -192 -592 -224
WIRE -448 -160 -448 -192
WIRE -656 -128 -880 -128
WIRE -1168 -96 -1168 -144
WIRE -784 -80 -784 -144
WIRE -880 -64 -880 -128
WIRE -816 -64 -880 -64
WIRE -656 -48 -656 -128
WIRE -656 -48 -752 -48
WIRE -592 -48 -656 -48
WIRE -448 -48 -448 -80
WIRE -448 -48 -512 -48
WIRE -368 -48 -368 -384
WIRE -368 -48 -448 -48
WIRE -816 -32 -976 -32
WIRE -448 -16 -448 -48
WIRE -784 16 -784 -16
WIRE -448 96 -448 64
FLAG -1168 -96 0
FLAG -992 -528 0
FLAG -592 -192 0
FLAG -1168 -800 5V_ref
FLAG -288 -320 0
FLAG -448 96 0
FLAG -1120 -1056 0
FLAG 288 -304 0
FLAG 960 -416 0
FLAG 1184 -512 0
FLAG 1184 -672 Vcc
FLAG -976 -32 FB_IN
FLAG -784 16 0
FLAG -784 -144 Vcc
FLAG 640 -384 0
FLAG 640 -784 ctrl
FLAG 1568 -320 0
FLAG 1632 -496 0
FLAG 1632 -624 Vcc
FLAG 1888 -560 Vcontrol
IOPIN 1888 -560 Out
FLAG -688 -1504 0
FLAG -688 -1056 0
FLAG -576 -1232 FB_IN
FLAG 32 -1216 ctrl
FLAG -128 -1040 0
FLAG -2128 -656 0
FLAG -1776 -832 5V_ref
FLAG -1968 -784 0
FLAG -1968 -896 Vcc
FLAG -448 -192 5V_ref
FLAG 1360 -464 5V_ref
FLAG -640 -1376 in
FLAG 288 -656 5V_ref
FLAG 1808 -432 0
FLAG -2384 -816 Vcc
FLAG -288 -480 Vcc
FLAG -96 -576 Vcc
FLAG -1120 -1248 Vcc
FLAG 1376 -784 ctrl
FLAG -1808 -704 0
SYMBOL Misc\\NE555 -784 -448 R0
SYMATTR InstName U1
SYMBOL res -1184 -752 R0
SYMATTR InstName R1
SYMATTR Value 270
SYMBOL res -1184 -480 R0
SYMATTR InstName R2
SYMATTR Value 2k7
SYMBOL cap -1184 -208 R0
SYMATTR InstName C1
SYMATTR Value 2.2n
SYMBOL cap -608 -288 R0
SYMATTR InstName C2
SYMATTR Value 100n
SYMBOL res -464 -176 R0
SYMATTR InstName R3
SYMATTR Value 2.2k
SYMATTR SpiceLine tol=1 pwr=0.1
SYMBOL res -464 -32 R0
SYMATTR InstName R4
SYMATTR Value 2.2k
SYMATTR SpiceLine tol=1 pwr=0.1
SYMBOL res -496 -64 R90
WINDOW 0 0 56 VBottom 2
WINDOW 3 32 56 VTop 2
SYMATTR InstName R5
SYMATTR Value 2k
SYMBOL res -112 -544 R0
SYMATTR InstName R6
SYMATTR Value 10k
SYMBOL voltage -1120 -1184 R0
WINDOW 123 0 0 Left 0
WINDOW 39 0 0 Left 0
SYMATTR InstName V1
SYMATTR Value 6
SYMBOL Comparators\\LTC6702 -288 -400 R0
SYMATTR InstName U2
SYMBOL npn 224 -448 R0
SYMATTR InstName Q1
SYMATTR Value 2N2222
SYMBOL res 144 -416 R90
WINDOW 0 0 56 VBottom 2
WINDOW 3 32 56 VTop 2
SYMATTR InstName R7
SYMATTR Value 1k
SYMBOL cap 944 -512 R0
SYMATTR InstName C3
SYMATTR Value 1000p
SYMBOL res 848 -576 R90
WINDOW 0 0 56 VBottom 2
WINDOW 3 32 56 VTop 2
SYMATTR InstName R8
SYMATTR Value 500k
SYMBOL res 272 -608 R0
SYMATTR InstName R9
SYMATTR Value 2k
SYMBOL npn 576 -528 R0
SYMATTR InstName Q2
SYMATTR Value 2N2222
SYMBOL res 496 -496 R90
WINDOW 0 0 56 VBottom 2
WINDOW 3 32 56 VTop 2
SYMATTR InstName R10
SYMATTR Value 10k
SYMBOL res 624 -736 R0
SYMATTR InstName R11
SYMATTR Value 1k
SYMBOL res 1552 -592 R90
WINDOW 0 0 56 VBottom 2
WINDOW 3 32 56 VTop 2
SYMATTR InstName R21
SYMATTR Value 10k
SYMBOL res 1712 -752 R90
WINDOW 0 0 56 VBottom 2
WINDOW 3 32 56 VTop 2
SYMATTR InstName R22
SYMATTR Value 10k
SYMBOL res 1584 -336 R180
WINDOW 0 36 76 Left 2
WINDOW 3 36 40 Left 2
SYMATTR InstName R23
SYMATTR Value 10k
SYMBOL res 1520 -480 R90
WINDOW 0 0 56 VBottom 2
WINDOW 3 32 56 VTop 2
SYMATTR InstName R24
SYMATTR Value 10k
SYMBOL voltage -688 -1376 R180
WINDOW 123 0 0 Left 0
WINDOW 39 0 0 Left 0
SYMATTR InstName V4
SYMATTR Value 28
SYMBOL res -704 -1376 R0
SYMATTR InstName R25
SYMATTR Value 102k
SYMBOL res -704 -1200 R0
SYMATTR InstName R26
SYMATTR Value 10k
SYMBOL voltage -128 -1168 R0
WINDOW 123 0 0 Left 0
WINDOW 39 0 0 Left 0
SYMATTR InstName V9
SYMATTR Value 5
SYMBOL AutoGenerated\\AD8532 -752 -64 R0
SYMATTR InstName U5
SYMBOL AutoGenerated\\AD8532 1216 -592 R0
SYMATTR InstName U6
SYMBOL AutoGenerated\\AD8532 1664 -576 R0
SYMATTR InstName U7
SYMBOL res -2320 -800 R270
WINDOW 0 32 56 VTop 2
WINDOW 3 0 56 VBottom 2
SYMATTR InstName Rbias1
SYMATTR Value 768
SYMATTR SpiceLine tol=1 pwr=0.1
SYMBOL ADR5045 -2128 -736 R0
SYMATTR InstName U3
SYMBOL AutoGenerated\\AD8532 -1936 -848 R0
SYMATTR InstName U4
SYMBOL cap 1792 -528 R0
SYMATTR InstName C4
SYMATTR Value 10µ
SYMATTR SpiceLine V=10 Irms=0 Rser=0 Lser=0 mfg="Murata" pn="GRM188R61A106MAAL" type="X5R"
SYMBOL cap -1824 -800 R0
SYMATTR InstName C5
SYMATTR Value 10µ
SYMATTR SpiceLine V=10 Irms=0 Rser=0 Lser=0 mfg="Murata" pn="GRM188R61A106KAAL" type="X5R"
TEXT -1792 184 Left 2 !.tran 0 5m 3.5m uic
