Version 4
SHEET 1 5272 1124
WIRE -1056 -1600 -1056 -1632
WIRE -1056 -1504 -1056 -1520
WIRE -1008 -1504 -1056 -1504
WIRE -1056 -1488 -1056 -1504
WIRE -416 -1472 -576 -1472
WIRE -576 -1408 -576 -1472
WIRE -1856 -1360 -1936 -1360
WIRE -1680 -1360 -1776 -1360
WIRE -1488 -1360 -1680 -1360
WIRE -1056 -1360 -1056 -1408
WIRE -944 -1360 -1056 -1360
WIRE -1680 -1312 -1680 -1360
WIRE -1056 -1312 -1056 -1360
WIRE -576 -1296 -576 -1328
WIRE -1680 -1200 -1680 -1248
WIRE -1056 -1184 -1056 -1232
WIRE 208 -1104 160 -1104
WIRE 336 -1104 288 -1104
WIRE -624 -1040 -624 -1104
WIRE -112 -1024 -336 -1024
WIRE -240 -976 -240 -1040
WIRE -336 -960 -336 -1024
WIRE -272 -960 -336 -960
WIRE 224 -960 224 -992
WIRE -112 -944 -112 -1024
WIRE -112 -944 -208 -944
WIRE 48 -944 -112 -944
WIRE 160 -944 160 -1104
WIRE 160 -944 128 -944
WIRE 192 -944 160 -944
WIRE -624 -928 -624 -960
WIRE -560 -928 -624 -928
WIRE -416 -928 -480 -928
WIRE -272 -928 -416 -928
WIRE 336 -928 336 -1104
WIRE 336 -928 256 -928
WIRE 480 -928 336 -928
WIRE 192 -912 160 -912
WIRE -624 -896 -624 -928
WIRE -416 -880 -416 -928
WIRE -240 -880 -240 -912
WIRE 224 -864 224 -896
WIRE -1504 -848 -1584 -848
WIRE -944 -848 -1280 -848
WIRE -864 -848 -944 -848
WIRE -688 -848 -784 -848
WIRE 16 -832 -48 -832
WIRE 160 -832 160 -912
WIRE 160 -832 96 -832
WIRE 160 -800 160 -832
WIRE -416 -784 -416 -816
WIRE -1504 -768 -1536 -768
WIRE -1200 -768 -1280 -768
WIRE -1088 -768 -1200 -768
WIRE -976 -768 -1088 -768
WIRE -1200 -752 -1200 -768
WIRE -1088 -752 -1088 -768
WIRE -976 -752 -976 -768
WIRE -624 -752 -624 -800
WIRE -1504 -688 -1568 -688
WIRE -1232 -688 -1280 -688
WIRE 160 -688 160 -720
WIRE -1232 -656 -1232 -688
WIRE -1200 -656 -1200 -672
WIRE -1200 -656 -1232 -656
WIRE -1088 -656 -1088 -688
WIRE -976 -656 -976 -672
WIRE -1568 -640 -1568 -688
WIRE -1200 -640 -1200 -656
WIRE -1568 -544 -1568 -560
WIRE -1200 -544 -1200 -560
FLAG -976 -656 0
FLAG -944 -848 PWMout
FLAG -1200 -544 0
FLAG -1568 -544 0
FLAG -1536 -768 0
FLAG -624 -752 0
FLAG 160 -688 0
FLAG 224 -864 0
FLAG 224 -992 Vcc
FLAG 480 -928 Vcontrol
IOPIN 480 -928 Out
FLAG -48 -832 5V_ref
FLAG -416 -1472 ctrl
FLAG -576 -1296 0
FLAG -1680 -1200 0
FLAG -1488 -1360 5V_ref
FLAG -1936 -1360 Vcc
FLAG -976 -768 Vcc
FLAG -1056 -1632 0
FLAG -1056 -1184 0
FLAG -944 -1360 FB_IN
FLAG -1008 -1504 in
FLAG -1584 -848 FB_IN
FLAG -624 -1104 ctrl
FLAG -240 -880 0
FLAG -240 -1040 Vcc
FLAG -416 -784 0
FLAG -1088 -656 0
SYMBOL res -1584 -656 R0
SYMATTR InstName R1
SYMATTR Value 75K
SYMATTR SpiceLine tol=1 pwr=0.1
SYMBOL res -1216 -656 R0
SYMATTR InstName R2
SYMATTR Value 280k
SYMBOL res -1216 -768 R0
SYMATTR InstName R3
SYMATTR Value 1Meg
SYMBOL voltage -976 -768 R0
WINDOW 123 0 0 Left 2
WINDOW 39 0 0 Left 2
SYMATTR InstName V1
SYMATTR Value 5.5
SYMBOL SpecialFunctions\\LTC6992-1 -1392 -768 R0
SYMATTR InstName U1
SYMBOL res -768 -864 R90
WINDOW 0 0 56 VBottom 2
WINDOW 3 32 56 VTop 2
SYMATTR InstName R5
SYMATTR Value 1k
SYMBOL res -640 -1056 R0
SYMATTR InstName R7
SYMATTR Value 1k
SYMBOL res 144 -960 R90
WINDOW 0 0 56 VBottom 2
WINDOW 3 32 56 VTop 2
SYMATTR InstName R10
SYMATTR Value 10k
SYMBOL res 304 -1120 R90
WINDOW 0 0 56 VBottom 2
WINDOW 3 32 56 VTop 2
SYMATTR InstName R11
SYMATTR Value 10k
SYMBOL res 176 -704 R180
WINDOW 0 36 76 Left 2
WINDOW 3 36 40 Left 2
SYMATTR InstName R12
SYMATTR Value 10k
SYMBOL res 112 -848 R90
WINDOW 0 0 56 VBottom 2
WINDOW 3 32 56 VTop 2
SYMATTR InstName R13
SYMATTR Value 10k
SYMBOL AutoGenerated\\AD8532 256 -944 R0
SYMATTR InstName U3
SYMBOL voltage -576 -1424 R0
WINDOW 123 0 0 Left 0
WINDOW 39 0 0 Left 0
SYMATTR InstName V3
SYMATTR Value 2.5
SYMBOL res -1872 -1344 R270
WINDOW 0 32 56 VTop 2
WINDOW 3 0 56 VBottom 2
SYMATTR InstName Rbias1
SYMATTR Value 768
SYMATTR SpiceLine tol=1 pwr=0.1
SYMBOL ADR5045 -1680 -1280 R0
SYMATTR InstName U4
SYMBOL voltage -1056 -1504 R180
WINDOW 123 0 0 Left 0
WINDOW 39 0 0 Left 0
SYMATTR InstName V4
SYMATTR Value 28
SYMBOL res -1072 -1504 R0
SYMATTR InstName R4
SYMATTR Value 187K
SYMATTR SpiceLine tol=1 pwr=0.1
SYMBOL res -1072 -1328 R0
SYMATTR InstName R14
SYMATTR Value 3.4K
SYMATTR SpiceLine tol=1 pwr=0.1
SYMBOL AutoGenerated\\AD8532 -208 -960 R0
SYMATTR InstName U6
SYMBOL npn -688 -896 R0
SYMATTR InstName Q1
SYMATTR Value 2N2222
SYMBOL cap -432 -880 R0
SYMATTR InstName C3
SYMATTR Value 10n
SYMBOL res -464 -944 R90
WINDOW 0 0 56 VBottom 2
WINDOW 3 32 56 VTop 2
SYMATTR InstName R15
SYMATTR Value 499K
SYMATTR SpiceLine tol=1 pwr=0.1
SYMBOL cap -1104 -752 R0
SYMATTR InstName C4
SYMATTR Value .1µ
TEXT -1064 -560 Left 2 !.tran 500m startup
