Version 4.1
SHEET 1 2276 820
WIRE -240 -1264 -320 -1264
WIRE -64 -1264 -160 -1264
WIRE 112 -1264 -64 -1264
WIRE -64 -1216 -64 -1264
WIRE -64 -1104 -64 -1152
WIRE -368 -960 -368 -1024
WIRE 400 -896 400 -976
WIRE 592 -880 512 -880
WIRE 720 -880 672 -880
WIRE -368 -848 -368 -880
WIRE -160 -848 -368 -848
WIRE 48 -848 -80 -848
WIRE 160 -848 48 -848
WIRE 336 -848 240 -848
WIRE -368 -816 -368 -848
WIRE 576 -784 576 -816
WIRE 128 -768 128 -800
WIRE 400 -768 400 -816
WIRE 512 -768 512 -880
WIRE 512 -768 400 -768
WIRE 544 -768 512 -768
WIRE 48 -752 48 -848
WIRE 96 -752 48 -752
WIRE 720 -752 720 -880
WIRE 720 -752 608 -752
WIRE 800 -752 720 -752
WIRE 336 -736 336 -848
WIRE 336 -736 160 -736
WIRE 544 -736 336 -736
WIRE -160 -720 -240 -720
WIRE 0 -720 -80 -720
WIRE 96 -720 0 -720
WIRE 576 -688 576 -720
WIRE -368 -672 -368 -736
WIRE -368 -672 -464 -672
WIRE 128 -672 128 -704
WIRE -464 -640 -464 -672
WIRE 0 -640 0 -720
WIRE -368 -608 -368 -672
WIRE 752 -592 752 -624
WIRE 0 -512 0 -560
WIRE -368 -480 -368 -528
WIRE -240 -480 -240 -720
WIRE -240 -480 -368 -480
WIRE -368 -416 -368 -480
WIRE -368 -288 -368 -336
WIRE -352 16 -400 16
WIRE -192 16 -288 16
WIRE 432 112 352 112
WIRE 592 112 512 112
WIRE 80 128 -64 128
WIRE -352 144 -368 144
WIRE -272 144 -272 112
WIRE -272 144 -288 144
WIRE -368 176 -368 144
WIRE -64 176 -64 128
WIRE -272 192 -272 144
WIRE 976 192 976 128
WIRE 1200 192 1200 128
WIRE -528 208 -656 208
WIRE -400 208 -400 16
WIRE -400 208 -448 208
WIRE -304 208 -400 208
WIRE 352 208 352 112
WIRE 432 208 352 208
WIRE 592 208 592 112
WIRE 592 208 496 208
WIRE -192 224 -192 16
WIRE -192 224 -240 224
WIRE -128 224 -192 224
WIRE -304 240 -336 240
WIRE -336 272 -336 240
WIRE -272 272 -272 256
WIRE -272 272 -336 272
WIRE 80 288 80 128
WIRE 208 288 80 288
WIRE -272 304 -272 272
WIRE -64 304 -64 272
WIRE 448 304 448 288
WIRE 464 304 448 304
WIRE 560 304 528 304
WIRE 976 304 976 272
WIRE 1056 304 976 304
WIRE 1200 304 1200 272
WIRE 1200 304 1136 304
WIRE 64 336 16 336
WIRE 192 336 144 336
WIRE 976 336 976 304
WIRE 560 352 560 304
WIRE 1200 352 1200 304
WIRE 448 368 448 304
WIRE -400 384 -400 208
WIRE 176 384 -400 384
WIRE 208 384 208 288
WIRE 224 384 208 384
WIRE 352 384 352 208
WIRE 416 384 352 384
WIRE 192 400 192 336
WIRE 224 400 192 400
WIRE 592 400 592 208
WIRE 592 400 480 400
WIRE 752 400 592 400
WIRE 176 416 176 384
WIRE 224 416 176 416
WIRE 352 416 352 384
WIRE 352 416 288 416
WIRE 416 416 384 416
WIRE 224 432 144 432
WIRE 320 432 288 432
WIRE 384 464 384 416
WIRE 448 464 448 432
WIRE 448 464 384 464
WIRE 144 480 144 432
WIRE 320 496 320 432
WIRE 448 496 448 464
FLAG 976 336 0
FLAG 1200 352 COM
FLAG 976 128 Viso
FLAG 1200 128 Vs
FLAG -368 -288 0
FLAG 0 -512 0
FLAG 400 -976 0
FLAG -464 -640 0
FLAG 128 -800 Viso
FLAG 576 -816 Viso
FLAG 128 -672 0
FLAG 576 -688 0
FLAG 800 -752 Vcontrol
FLAG -64 -1104 0
FLAG 112 -1264 5V_ref
FLAG -320 -1264 Viso
FLAG -368 -1024 5V_ref
FLAG -272 112 Viso
FLAG 448 496 COM
FLAG 448 288 Vs
FLAG 752 400 Vout
FLAG -272 304 0
FLAG 144 480 0
FLAG -64 304 0
FLAG 320 496 COM
FLAG -656 208 Vcontrol
FLAG -368 176 0
FLAG 560 352 COM
FLAG 16 336 Viso
FLAG 752 -592 0
SYMBOL res 1152 288 R90
WINDOW 0 0 56 VBottom 2
WINDOW 3 32 56 VTop 2
SYMATTR InstName R2
SYMATTR Value 100Meg
SYMBOL res -16 -656 R0
SYMATTR InstName R5
SYMATTR Value 100k
SYMATTR SpiceLine tol=1 pwr=0.1
SYMBOL res 384 -912 R0
SYMATTR InstName R6
SYMATTR Value 1k
SYMATTR SpiceLine tol=1 pwr=0.1
SYMBOL res 688 -896 R90
WINDOW 0 0 56 VBottom 2
WINDOW 3 32 56 VTop 2
SYMATTR InstName R7
SYMATTR Value 250
SYMBOL res 256 -864 R90
WINDOW 0 0 56 VBottom 2
WINDOW 3 32 56 VTop 2
SYMATTR InstName R8
SYMATTR Value 100k
SYMBOL res -64 -736 R90
WINDOW 0 0 56 VBottom 2
WINDOW 3 32 56 VTop 2
SYMATTR InstName R9
SYMATTR Value 100k
SYMBOL res -64 -864 R90
WINDOW 0 0 56 VBottom 2
WINDOW 3 32 56 VTop 2
SYMATTR InstName R10
SYMATTR Value 100k
SYMBOL res -352 -320 R180
WINDOW 0 36 76 Left 2
WINDOW 3 36 40 Left 2
SYMATTR InstName R11
SYMATTR Value 250
SYMBOL res -352 -864 R180
WINDOW 0 36 76 Left 2
WINDOW 3 36 40 Left 2
SYMATTR InstName R12
SYMATTR Value 20K
SYMATTR SpiceLine tol=1 pwr=0.1
SYMBOL res -352 -720 R180
WINDOW 0 36 76 Left 2
WINDOW 3 36 40 Left 2
SYMATTR InstName R13
SYMATTR Value 5.11K
SYMATTR SpiceLine tol=1 pwr=0.1
SYMBOL current -368 -608 R0
WINDOW 123 0 0 Left 0
WINDOW 39 0 0 Left 0
SYMATTR InstName I1
SYMATTR Value 20m
SYMBOL res -256 -1248 R270
WINDOW 0 32 56 VTop 2
WINDOW 3 0 56 VBottom 2
SYMATTR InstName Rbias1
SYMATTR Value 768
SYMATTR SpiceLine tol=1 pwr=0.1
SYMBOL ADR5045 -64 -1184 R0
SYMATTR InstName U9
SYMBOL res -432 192 R90
WINDOW 0 0 56 VBottom 2
WINDOW 3 32 56 VTop 2
SYMATTR InstName R14
SYMATTR Value 100k
SYMBOL cap -288 0 R90
WINDOW 0 0 32 VBottom 2
WINDOW 3 32 32 VTop 2
SYMATTR InstName C3
SYMATTR Value 1n
SYMBOL cap 496 192 R90
WINDOW 0 0 32 VBottom 2
WINDOW 3 32 32 VTop 2
SYMATTR InstName C4
SYMATTR Value 1n
SYMBOL pnp -128 272 M180
SYMATTR InstName Q1
SYMATTR Value 2N5771
SYMBOL res 160 320 R90
WINDOW 0 0 56 VBottom 2
WINDOW 3 32 56 VTop 2
SYMATTR InstName R15
SYMATTR Value 150
SYMATTR SpiceLine tol=1 pwr=0.1
SYMBOL res 528 96 R90
WINDOW 0 0 56 VBottom 2
WINDOW 3 32 56 VTop 2
SYMATTR InstName R16
SYMATTR Value 102k
SYMATTR SpiceLine tol=1 pwr=0.1
SYMBOL voltage 976 176 R0
WINDOW 123 0 0 Left 0
WINDOW 39 0 0 Left 0
SYMATTR InstName V1
SYMATTR Value 6
SYMBOL voltage 1200 176 R0
WINDOW 123 0 0 Left 0
WINDOW 39 0 0 Left 0
SYMATTR InstName V2
SYMATTR Value 6
SYMBOL cap -288 128 R90
WINDOW 0 0 32 VBottom 2
WINDOW 3 32 32 VTop 2
SYMATTR InstName C1
SYMATTR Value 100n
SYMBOL cap 528 288 R90
WINDOW 0 0 32 VBottom 2
WINDOW 3 32 32 VTop 2
SYMATTR InstName C2
SYMATTR Value 100n
SYMBOL voltage 752 -720 R0
WINDOW 123 0 0 Left 0
WINDOW 39 0 0 Left 0
SYMATTR InstName V3
SYMATTR Value 5
SYMBOL OpAmp.Add\\AD8531 128 -800 R0
SYMATTR InstName U2
SYMBOL OpAmp.Add\\AD8531 576 -816 R0
SYMATTR InstName U3
SYMBOL OpAmp.Add\\AD8531 -272 160 R0
SYMATTR InstName U4
SYMBOL OpAmp.Add\\AD8531 448 336 R0
SYMATTR InstName U5
SYMBOL OptoElec\\HCNR200 256 416 R0
SYMATTR InstName U6
TEXT -632 552 Left 2 !.tran 0 6 0.1 uic
TEXT 264 -1064 Left 2 ;Colocar um potenciômetro 1k em R6
TEXT 248 16 Left 2 ;Colocar um potenciômetro 20k em R16
