Version 4
SHEET 1 1016 680
WIRE 432 -272 368 -272
WIRE 624 -272 496 -272
WIRE 624 -240 624 -272
WIRE 624 -144 624 -176
WIRE 624 -144 448 -144
WIRE 624 -112 624 -144
WIRE 368 -80 368 -272
WIRE 448 -80 448 -144
WIRE 240 -64 208 -64
WIRE 240 -48 240 -64
WIRE -512 -32 -656 -32
WIRE -400 -32 -512 -32
WIRE -288 -32 -400 -32
WIRE -176 -32 -288 -32
WIRE -80 -32 -176 -32
WIRE -176 -16 -176 -32
WIRE -400 0 -400 -32
WIRE -288 0 -288 -32
WIRE 240 32 240 16
WIRE 304 32 240 32
WIRE 368 32 368 -16
WIRE 368 32 304 32
WIRE 448 32 448 -16
WIRE 592 32 448 32
WIRE 656 32 592 32
WIRE 784 32 656 32
WIRE 880 32 784 32
WIRE 960 32 880 32
WIRE -176 64 -176 48
WIRE -80 64 -80 -32
WIRE -32 64 -80 64
WIRE 208 64 208 -64
WIRE 208 64 176 64
WIRE -656 96 -656 -32
WIRE -512 96 -512 -32
WIRE -288 96 -288 80
WIRE -32 96 -288 96
WIRE 240 112 176 112
WIRE 304 112 304 32
WIRE 304 112 240 112
WIRE 352 112 304 112
WIRE 464 112 432 112
WIRE 496 112 464 112
WIRE 592 112 592 32
WIRE 592 112 560 112
WIRE -400 128 -400 80
WIRE -32 128 -400 128
WIRE 240 144 240 112
WIRE 240 144 176 144
WIRE 656 144 656 32
WIRE 784 144 784 32
WIRE 880 144 880 32
WIRE 960 144 960 32
WIRE -32 160 -240 160
WIRE 464 160 464 112
WIRE -400 192 -400 128
WIRE -32 192 -80 192
WIRE 240 192 176 192
WIRE -80 224 -80 192
WIRE -32 224 -80 224
WIRE 240 224 240 192
WIRE 240 224 176 224
WIRE -240 256 -240 160
WIRE -80 256 -80 224
WIRE -32 256 -80 256
WIRE 464 256 464 224
WIRE 464 256 176 256
WIRE 656 256 656 224
WIRE 656 256 464 256
WIRE 240 272 240 224
WIRE 656 272 656 256
WIRE -656 368 -656 176
WIRE -512 368 -512 160
WIRE -512 368 -656 368
WIRE -400 368 -400 272
WIRE -400 368 -512 368
WIRE -240 368 -240 320
WIRE -240 368 -400 368
WIRE -80 368 -80 256
WIRE -80 368 -240 368
WIRE 80 368 -80 368
WIRE 240 368 240 336
WIRE 240 368 80 368
WIRE 656 368 656 352
WIRE 656 368 240 368
WIRE 784 368 784 208
WIRE 784 368 656 368
WIRE 880 368 880 208
WIRE 880 368 784 368
WIRE 960 368 960 208
WIRE 960 368 880 368
WIRE 80 400 80 368
FLAG 80 400 0
FLAG -176 64 0
FLAG 624 -112 0
SYMBOL AutoGenerated\\LM5160 64 160 R0
SYMATTR InstName U1
SYMATTR ModelFile C:\Users\Mateus\Downloads\snvm965\PSPICE\LM5160_PSPICE_TRANS\lm5160.lib
SYMBOL cap -192 -16 R0
SYMATTR InstName C1
SYMATTR Value 0.22µ
SYMATTR SpiceLine V=100 Irms=0 Rser=0 Lser=0 mfg="Murata" pn="GCM31MR72A224KA37" type="X7R"
SYMBOL cap -256 256 R0
SYMATTR InstName C2
SYMATTR Value 0.027µ
SYMATTR SpiceLine V=100 Irms=0 Rser=0 Lser=0 mfg="Murata" pn="GCM21BR72A273KA37" type="X7R"
SYMBOL cap -528 96 R0
SYMATTR InstName C3
SYMATTR Value 1µ
SYMATTR SpiceLine V=100 Irms=0 Rser=0.0053 Lser=651p mfg="Würth Elektronik" pn="885012209069 WCAP-CSGP 1210" type="X7R"
SYMBOL res -416 -16 R0
SYMATTR InstName R1
SYMATTR Value 133k
SYMBOL res -416 176 R0
SYMATTR InstName R2
SYMATTR Value 23.7k
SYMBOL Misc\\battery -656 80 R0
WINDOW 123 0 0 Left 0
WINDOW 39 0 0 Left 0
SYMATTR InstName V1
SYMATTR Value 12
SYMBOL res -304 -16 R0
SYMATTR InstName R3
SYMATTR Value 162k
SYMBOL cap 224 272 R0
SYMATTR InstName C4
SYMATTR Value 1µ
SYMATTR SpiceLine V=16 Irms=0 Rser=0 Lser=0 mfg="Murata" pn="GRM155R61C105KA12" type="X5R"
SYMBOL cap 448 160 R0
SYMATTR InstName C5
SYMATTR Value 0.1µ
SYMATTR SpiceLine V=25 Irms=0 Rser=0.037 Lser=674p mfg="Würth Elektronik" pn="885012210008 WCAP-CSGP 1812" type="X7R"
SYMBOL cap 224 -48 R0
SYMATTR InstName C6
SYMATTR Value 0.01µ
SYMATTR SpiceLine V=6.3 Irms=0 Rser=0 Lser=0 mfg="Murata" pn="GRM033R70J103KA01" type="X7R"
SYMBOL cap 608 -240 R0
SYMATTR InstName C7
SYMATTR Value 47µ
SYMATTR SpiceLine V=16 Irms=0 Rser=0 Lser=0 mfg="Murata" pn="GRM31CR61C476ME44" type="X5R"
SYMBOL cap 768 144 R0
SYMATTR InstName C8
SYMATTR Value 10µ
SYMATTR SpiceLine V=10 Irms=0 Rser=0.0029 Lser=748p mfg="Würth Elektronik" pn="885012208018 WCAP-CSGP 1206" type="X7R"
SYMBOL res 640 256 R0
SYMATTR InstName R4
SYMATTR Value 2k
SYMBOL res 640 128 R0
SYMATTR InstName R5
SYMATTR Value 3.92k
SYMBOL res 448 96 R90
WINDOW 0 0 56 VBottom 2
WINDOW 3 32 56 VTop 2
SYMATTR InstName R6
SYMATTR Value 13k
SYMBOL cap 560 96 R90
WINDOW 0 0 32 VBottom 2
WINDOW 3 32 32 VTop 2
SYMATTR InstName C9
SYMATTR Value 0.0051µ
SYMATTR SpiceLine V=50 Irms=0 Rser=0 Lser=0 mfg="Murata" pn="GCM1885C1H512JA16" type="C0G"
SYMBOL ind2 464 0 M270
WINDOW 0 25 106 VTop 2
WINDOW 3 50 6 VBottom 2
SYMATTR InstName L1
SYMATTR Value 100µ
SYMATTR Type ind
SYMATTR SpiceLine Rser=326.5m
SYMBOL ind2 352 -96 M90
WINDOW 0 49 6 VBottom 2
WINDOW 3 22 106 VTop 2
SYMATTR InstName L2
SYMATTR Value 100µ
SYMATTR Type ind
SYMATTR SpiceLine Rser=326.5u
SYMBOL schottky 432 -256 R270
WINDOW 0 32 32 VTop 2
WINDOW 3 0 32 VBottom 2
SYMATTR InstName D1
SYMATTR Value RB558VAM150
SYMATTR Description Diode
SYMATTR Type diode
SYMBOL cap 864 144 R0
SYMATTR InstName C10
SYMATTR Value 10µ
SYMATTR SpiceLine V=10 Irms=0 Rser=0.0029 Lser=748p mfg="Würth Elektronik" pn="885012208018 WCAP-CSGP 1206" type="X7R"
SYMBOL cap 944 144 R0
SYMATTR InstName C11
SYMATTR Value 10µ
SYMATTR SpiceLine V=10 Irms=0 Rser=0.0029 Lser=748p mfg="Würth Elektronik" pn="885012208018 WCAP-CSGP 1206" type="X7R"
TEXT 504 -56 Left 2 !K L1 L2 1
TEXT -688 664 Left 2 !.tran 5 startup uic
